# generated using pymatgen
data_Pr5(CoB3)2
_symmetry_space_group_name_H-M   'P 1'
_cell_length_a   8.91944954
_cell_length_b   8.91944954
_cell_length_c   8.91945019
_cell_angle_alpha   35.85189404
_cell_angle_beta   35.85189404
_cell_angle_gamma   35.85188987
_symmetry_Int_Tables_number   1
_chemical_formula_structural   Pr5(CoB3)2
_chemical_formula_sum   'Pr5 Co2 B6'
_cell_volume   217.66333364
_cell_formula_units_Z   1
loop_
 _symmetry_equiv_pos_site_id
 _symmetry_equiv_pos_as_xyz
  1  'x, y, z'
loop_
 _atom_site_type_symbol
 _atom_site_label
 _atom_site_symmetry_multiplicity
 _atom_site_fract_x 
 _atom_site_fract_y
 _atom_site_fract_z
 _atom_site_occupancy
  Pr  Pr0  1  0.58275600  0.58275600  0.58275600  1
  Pr  Pr1  1  0.41724400  0.41724400  0.41724400  1
  Pr  Pr2  1  0.74938700  0.74938700  0.74938700  1
  Pr  Pr3  1  0.25061300  0.25061300  0.25061300  1
  Pr  Pr4  1  0.00000000  0.00000000  0.00000000  1
  Co  Co5  1  0.87613200  0.87613200  0.87613200  1
  Co  Co6  1  0.12386800  0.12386800  0.12386800  1
  B  B7  1  0.50000000  0.83293800  0.16706200  1
  B  B8  1  0.16706200  0.50000000  0.83293800  1
  B  B9  1  0.83293800  0.16706200  0.50000000  1
  B  B10  1  0.50000000  0.16706200  0.83293800  1
  B  B11  1  0.83293800  0.50000000  0.16706200  1
  B  B12  1  0.16706200  0.83293800  0.50000000  1
